Version 4.1
SHEET 1 1144 680
WIRE 256 -128 256 -144
WIRE 336 -128 256 -128
WIRE 464 -128 416 -128
WIRE 256 -16 256 -128
WIRE 304 -16 256 -16
WIRE 464 0 464 -128
WIRE 464 0 368 0
WIRE 16 16 -128 16
WIRE 176 16 96 16
WIRE 272 16 240 16
WIRE 304 16 272 16
WIRE 272 128 272 16
WIRE 320 128 272 128
WIRE 464 128 464 0
WIRE 464 128 384 128
WIRE -128 176 -128 16
WIRE 272 224 272 128
WIRE 320 224 272 224
WIRE 464 224 464 128
WIRE 464 224 400 224
FLAG -128 256 0
FLAG 256 -224 0
FLAG 336 -32 Vcc+
FLAG 336 32 Vcc-
SYMBOL voltage -128 160 R0
WINDOW 123 24 124 Left 2
WINDOW 39 0 0 Left 0
SYMATTR InstName V1
SYMATTR Value SINE(1 1 0)
SYMATTR Value2 AC 1
SYMBOL res 112 0 R90
WINDOW 0 0 56 VBottom 2
WINDOW 3 32 56 VTop 2
SYMATTR InstName R1
SYMATTR Value 10k
SYMBOL cap 240 0 R90
WINDOW 0 0 32 VBottom 2
WINDOW 3 32 32 VTop 2
SYMATTR InstName C1
SYMATTR Value 22n
SYMBOL res 416 208 R90
WINDOW 0 0 56 VBottom 2
WINDOW 3 32 56 VTop 2
SYMATTR InstName R2
SYMATTR Value 10k
SYMBOL cap 384 112 R90
WINDOW 0 0 32 VBottom 2
WINDOW 3 32 32 VTop 2
SYMATTR InstName C2
SYMATTR Value 22n
SYMBOL res 240 -240 R0
SYMATTR InstName R3
SYMATTR Value 10k
SYMBOL res 432 -144 R90
WINDOW 0 0 56 VBottom 2
WINDOW 3 32 56 VTop 2
SYMATTR InstName R4
SYMATTR Value 5.6k
SYMBOL OpAmps\\TL081 336 0 R0
SYMATTR InstName U1
TEXT -160 304 Left 2 !.ac dec 1000 1 90000000
