Version 4.1
SHEET 1 1240 680
WIRE 160 -64 -80 -64
WIRE 608 -64 240 -64
WIRE 480 96 432 96
WIRE 608 96 608 -64
WIRE 608 96 560 96
WIRE -80 112 -80 -64
WIRE -48 112 -80 112
WIRE 96 112 16 112
WIRE 176 128 160 128
WIRE 176 160 176 128
WIRE 208 160 208 144
WIRE 208 160 176 160
WIRE 432 176 432 96
WIRE 480 176 432 176
WIRE 608 176 608 96
WIRE 608 176 544 176
WIRE 96 192 96 112
WIRE 176 192 176 160
WIRE -80 240 -80 112
WIRE 0 240 -80 240
WIRE 208 256 208 160
WIRE 208 256 64 256
WIRE 256 256 208 256
WIRE 352 256 336 256
WIRE 432 256 432 176
WIRE 432 256 352 256
WIRE 496 256 432 256
WIRE 0 272 -32 272
WIRE 608 272 608 176
WIRE 608 272 560 272
WIRE -32 304 -32 272
WIRE 352 304 352 256
FLAG -32 304 0
FLAG 160 96 0
FLAG 288 144 0
FLAG 352 448 0
FLAG 496 288 0
SYMBOL OpAmps\\TL081 32 256 R0
SYMATTR InstName U1
SYMBOL cap -48 96 M90
WINDOW 0 0 32 VBottom 2
WINDOW 3 32 32 VTop 2
SYMATTR InstName C1
SYMATTR Value 10n
SYMBOL OpAmps\\TL081 128 112 R180
SYMATTR InstName U2
SYMBOL res 192 176 R90
WINDOW 0 0 56 VBottom 2
WINDOW 3 32 56 VTop 2
SYMATTR InstName R1
SYMATTR Value 10k
SYMBOL res 304 128 R90
WINDOW 0 0 56 VBottom 2
WINDOW 3 32 56 VTop 2
SYMATTR InstName R2
SYMATTR Value 10k
SYMBOL res 304 128 R90
WINDOW 0 0 56 VBottom 2
WINDOW 3 32 56 VTop 2
SYMATTR InstName R3
SYMBOL res 352 240 R90
WINDOW 0 0 56 VBottom 2
WINDOW 3 32 56 VTop 2
SYMATTR InstName R4
SYMATTR Value 8k
SYMBOL cap 336 304 R0
SYMATTR InstName C2
SYMATTR Value 10n
SYMBOL voltage 352 352 R0
WINDOW 123 24 124 Left 2
WINDOW 39 0 0 Left 0
SYMATTR InstName V3
SYMATTR Value ""
SYMATTR Value2 AC 1
SYMBOL OpAmps\\TL081 528 272 R0
SYMATTR InstName U3
SYMBOL cap 544 160 R90
WINDOW 0 0 32 VBottom 2
WINDOW 3 32 32 VTop 2
SYMATTR InstName C3
SYMATTR Value 10n
SYMBOL res 576 80 R90
WINDOW 0 0 56 VBottom 2
WINDOW 3 32 56 VTop 2
SYMATTR InstName R5
SYMATTR Value 6k
SYMBOL res 256 -80 R90
WINDOW 0 0 56 VBottom 2
WINDOW 3 32 56 VTop 2
SYMATTR InstName R6
SYMATTR Value 8k
TEXT 952 -128 Left 2 !.ac dec 1000 0.01 10000
