Version 4.1
SHEET 1 1148 680
WIRE 496 -240 288 -240
WIRE 528 -240 496 -240
WIRE 720 -240 608 -240
WIRE 624 -144 576 -144
WIRE 720 -144 720 -240
WIRE 720 -144 704 -144
WIRE 496 -128 496 -240
WIRE 496 -128 480 -128
WIRE 512 -128 496 -128
WIRE 608 -112 576 -112
WIRE 608 -80 608 -112
WIRE 208 -32 208 -240
WIRE 224 -32 208 -32
WIRE 416 32 416 -128
WIRE 464 32 416 32
WIRE 208 64 208 -32
WIRE 224 64 208 64
WIRE 304 64 304 -32
WIRE 304 64 288 64
WIRE 112 176 16 176
WIRE 208 176 208 64
WIRE 208 176 192 176
WIRE 224 176 208 176
WIRE 304 192 304 64
WIRE 304 192 288 192
WIRE 352 192 304 192
WIRE 464 192 464 32
WIRE 464 192 432 192
WIRE 512 192 464 192
WIRE 16 208 16 176
WIRE 224 208 192 208
WIRE 720 208 720 -144
WIRE 720 208 576 208
WIRE 512 224 464 224
WIRE 192 272 192 208
WIRE 464 288 464 224
FLAG 464 288 0
FLAG 192 272 0
FLAG 16 288 0
FLAG 608 -80 0
FLAG -560 -16 0
FLAG -416 -96 0
FLAG -560 -96 Vcc+
FLAG -416 -16 Vcc-
FLAG 720 208 Vout
FLAG 16 176 Vg
SYMBOL voltage 16 192 R0
WINDOW 3 24 152 Left 2
WINDOW 123 24 124 Left 2
WINDOW 39 0 0 Left 0
SYMATTR InstName V1
SYMATTR Value SINE(0 1 100)
SYMATTR Value2 AC 1
SYMBOL res 208 160 R90
WINDOW 0 0 56 VBottom 2
WINDOW 3 32 56 VTop 2
SYMATTR InstName R1
SYMATTR Value 1
SYMBOL res 320 -48 R90
WINDOW 0 0 56 VBottom 2
WINDOW 3 32 56 VTop 2
SYMATTR InstName R2
SYMATTR Value 5
SYMBOL cap 288 48 R90
WINDOW 0 0 32 VBottom 2
WINDOW 3 32 32 VTop 2
SYMATTR InstName C1
SYMATTR Value 1
SYMBOL res 448 176 R90
WINDOW 0 0 56 VBottom 2
WINDOW 3 32 56 VTop 2
SYMATTR InstName R3
SYMATTR Value 1
SYMBOL res 304 -256 R90
WINDOW 0 0 56 VBottom 2
WINDOW 3 32 56 VTop 2
SYMATTR InstName R4
SYMATTR Value 1
SYMBOL cap 480 -144 R90
WINDOW 0 0 32 VBottom 2
WINDOW 3 32 32 VTop 2
SYMATTR InstName C2
SYMATTR Value 1
SYMBOL res 624 -256 R90
WINDOW 0 0 56 VBottom 2
WINDOW 3 32 56 VTop 2
SYMATTR InstName R5
SYMATTR Value 1
SYMBOL res 720 -160 R90
WINDOW 0 0 56 VBottom 2
WINDOW 3 32 56 VTop 2
SYMATTR InstName R6
SYMATTR Value 1
SYMBOL voltage -560 -112 R0
WINDOW 123 0 0 Left 0
WINDOW 39 0 0 Left 0
SYMATTR InstName V2
SYMATTR Value 15
SYMBOL voltage -416 -112 R0
WINDOW 123 0 0 Left 0
WINDOW 39 0 0 Left 0
SYMATTR InstName V3
SYMATTR Value 15
SYMBOL OpAmps\\TL081 256 192 R0
SYMATTR InstName U1
SYMBOL OpAmps\\TL081 544 208 R0
SYMATTR InstName U4
SYMBOL OpAmps\\TL081 544 -128 R180
SYMATTR InstName U2
TEXT -192 -128 Left 2 ;.tran 0 10 1 0.01
TEXT -592 368 Left 2 !.ac dec 1000 0.001 10000
